.model mod_npn npn bf=130 is=5.11e-15 vaf=50 
 + tf=.505ns rb=200 cje=8pf cjc=6.197pf 
 + vjc=.087 mjc=.255

.model mod_pnp pnp bf=100 is=1.53e-15 vaf=33
+ tf=.609ns rb=0   cje=10pf cjc=14.3pf
+ vjc=0.55 mjc=0.5
