.model 1N4007  D(IS=3.872n RS=1.66E-02 N=1.776 XTI=3.0 EG=1.110 
+               CJO=1.519E-11 M=0.3554 VJ=0.5928 FC=0.5 ISR=1.356E-09
+               NR=2.152 BV=1000.0 IBV=1.0E-03 Tt=4u)

.model 1N4148   D(Is=5.84n N=1.94 Rs=.7017 Ikf=44.17m Xti=3 Eg=1.11 Cjo=.95p
+               M=.55 Vj=.75 Fc=.5 Isr=11.07n Nr=2.088 Bv=100 Ibv=100u Tt=11.07n)

.model 2N3904   NPN(Is=6.734f Xti=3 Eg=1.11 Vaf=74.03 Bf=416.4 Ne=1.259
+               Ise=6.734f Ikf=66.78m Xtb=1.5 Br=.7371 Nc=2 Isc=0 Ikr=0 Rc=1
+               Cjc=3.638p Mjc=.3085 Vjc=.75 Fc=.5 Cje=4.493p Mje=.2593 Vje=.75
+               Tr=239.5n Tf=301.2p Itf=.4 Vtf=4 Xtf=2 Rb=10)

.model 2N2222 NPN(IS=14.34F XTI=3 EG=1.11 VAF= 74.03 BF=255.9 
+             NE=1.307 ISE=14.34F IKF=.2847 XTB=1.5 BR=6.092 NC=2 
+             ISC=0 IKR=0 RC=1 CJC=7.306P MJC=.3416 VJC=.75 FC=.5 
+             CJE=22.01P MJE=.377 VJE=.75 TR=46.91N TF=411.1P ITF=.6 
+             VTF=1.7 XTF=3 RB=10)

.model 2n3906   PNP(Is=455.9E-18 Xti=3 Eg=1.11 Vaf=33.6 Bf=204.7 Ise=7.558f
+               Ne=1.536 Ikf=.3287 Nk=.9957 Xtb=1.5 Var=100 Br=3.72
+               Isc=529.3E-18 Nc=15.51 Ikr=11.1 Rc=.8508 Cjc=10.13p Mjc=.6993
+               Vjc=1.006 Fc=.5 Cje=10.39p Mje=.6931 Vje=.9937 Tr=10n Tf=181.2p
+               Itf=4.881m Xtf=.7939 Vtf=10 Rb=10)